sectionalized/peak_load/80pc/TNB_DUMA_VLN.Txt

SYMMETRICAL COMPONENT VOLTAGES BY BUS (for 3-phase buses)

Bus               Mag:   V1 (kV)    p.u.     V2 (kV)   %V2/V1    V0 (kV)    %V0/V1

ppu_duma_33kv        18.98     0.9962  3.67E-009  1.933E-008 1.239E-009 6.53E-009
ppu_duma_11kv_a      6.243     0.9831  1.76E-009  2.819E-008 5.337E-011 8.548E-010
ppu_duma_11kv_b      6.151     0.9685  1.548E-008  2.517E-007 1.749E-007 2.843E-006
rpplngi2             6.247     0.9837  1.539E-008  2.464E-007 1.786E-007 2.858E-006
pdtjlnmasjid         6.321     0.9953  1.533E-008  2.425E-007 1.814E-007 2.869E-006
bella                 6.37      1.003  1.529E-008   2.4E-007 1.832E-007 2.877E-006
pstpdgn              6.395      1.007  1.527E-008  2.388E-007 1.842E-007 2.88E-006
atria_1              6.301     0.9921  1.535E-008  2.436E-007 1.803E-007 2.861E-006
hawker               6.326      0.996  1.524E-008  2.409E-007 1.825E-007 2.886E-006
duma7                6.189     0.9746  1.807E-008  2.919E-007 1.801E-007 2.909E-006
haus                 6.276     0.9882  2.235E-008  3.561E-007 9.268E-007 1.477E-005
duma6                6.512      1.025  4.357E-008  6.691E-007 4.041E-006 6.206E-005
duma13                6.73       1.06  6.935E-008  1.03E-006 7.428E-006 0.0001104
ssu_duma5_im2        6.756      1.064  7.386E-008  1.093E-006 7.469E-006 0.0001106
pdtlitrak            6.417       1.01  1.502E-008  2.341E-007 1.884E-007 2.936E-006
duma12               6.525      1.027  1.481E-008  2.27E-007 1.941E-007 2.975E-006
tmngh4               6.631      1.044  1.463E-008  2.206E-007 2.551E-007 3.846E-006
ssu_tmegah3_ir1      6.674      1.051  1.455E-008  2.18E-007 2.802E-007 4.199E-006
tmngh2               6.691      1.054  1.451E-008  2.168E-007 2.909E-007 4.348E-006
ssu_uptwres_im2      6.188     0.9744  1.542E-008  2.492E-007 1.926E-007 3.112E-006
maybank              6.249      0.984  1.535E-008  2.457E-007 1.948E-007 3.118E-006
duma8                6.261     0.9858  1.535E-008  2.451E-007 1.994E-007 3.184E-006
duma9                6.329     0.9965  1.534E-008  2.423E-007 1.816E-007 2.87E-006
duma1                6.402      1.008  1.528E-008  2.387E-007 1.844E-007 2.88E-006
elite                6.429      1.012  1.526E-008  2.374E-007 1.854E-007 2.884E-006
pamdra               6.255     0.9849  1.764E-009  2.82E-008 5.349E-011 8.552E-010
duma4                6.295     0.9911  1.778E-009  2.825E-008 6.799E-011 1.08E-009
plsdra                6.38      1.005  1.807E-009  2.833E-008 1.296E-010 2.032E-009
prmte                6.311     0.9938  1.787E-009  2.831E-008 1.067E-010 1.69E-009
prmta                6.324     0.9958  1.792E-009  2.833E-008 1.078E-010 1.705E-009
pmontb               6.337     0.9978  1.796E-009  2.834E-008 1.175E-010 1.855E-009
plngi_b              6.305     0.9928  1.782E-009  2.827E-008 5.468E-011 8.672E-010
plngi_d              6.338      0.998  1.794E-009  2.831E-008 5.546E-011 8.75E-010
sprk9                6.447      1.015  1.844E-009  2.86E-008 6.165E-011 9.563E-010
bomba                6.459      1.017  1.848E-009  2.861E-008 6.696E-011 1.037E-009
sprk8                 6.49      1.022  1.859E-009  2.865E-008 8.454E-011 1.302E-009
ssu_dsarcntr_ir1     6.276     0.9882  1.771E-009  2.823E-008 5.395E-011 8.597E-010
duma10               6.383      1.005  1.812E-009  2.84E-008 5.719E-011 8.96E-010
balaipolis           6.384      1.005  1.813E-009  2.84E-008 5.724E-011 8.966E-010
ssu_uptwres_ir1      6.391      1.006  1.812E-009  2.834E-008 1.307E-010 2.045E-009
ppu_duma_vcb1            0          0          0          0         0         0
